38
Free-base porphyrin from https://doi.org/10.1039/C2CP40468K
H 3.209599995 3.172309777 0.000000000
N 0.000000000 -2.113600613 0.000000000
N 2.031813914 0.000000000 0.000000000
N 0.000000000 2.113600613 0.000000000
N -2.031813914 0.000000000 0.000000000
C 1.126850920 -2.888627221 0.000000000
C -1.126850920 -2.888627221 0.000000000
C 1.126850920 2.888627221 0.000000000
C -1.126850920 2.888627221 0.000000000
C 2.850160984 -1.083939750 0.000000000
C 2.850160984 1.083939750 0.000000000
C -2.850160984 -1.083939750 0.000000000
C -2.850160984 1.083939750 0.000000000
C 0.683827200 -4.249372023 0.000000000
C -0.683827200 -4.249372023 0.000000000
C 0.683827200 4.249372023 0.000000000
C -0.683827200 4.249372023 0.000000000
C 4.248378966 -0.675836785 0.000000000
C 4.248378966 0.675836785 0.000000000
C -4.248378966 -0.675836785 0.000000000
C -4.248378966 0.675836785 0.000000000
C 2.433989580 -2.416542873 0.000000000
C -2.433989580 -2.416542873 0.000000000
C -2.433989580 2.416542873 0.000000000
C 2.433989580 2.416542873 0.000000000
H 1.341416542 -5.103998738 0.000000000
H -1.341416542 -5.103998738 0.000000000
H 1.341416542 5.103998738 0.000000000
H -1.341416542 5.103998738 0.000000000
H 5.096138011 -1.344322017 0.000000000
H 5.096138011 1.344322017 0.000000000
H -5.096138011 -1.344322017 0.000000000
H -5.096138011 1.344322017 0.000000000
H 3.209599995 -3.172309777 0.000000000
H -3.209599995 -3.172309777 0.000000000
H -3.209599995 3.172309777 0.000000000
H 0.000000000 -1.102285542 0.000000000
H 0.000000000 1.102285542 0.000000000
